32
2
O         -0.37160       -0.90390       -0.28360
O         -1.61320        3.02130        0.17870
O         -1.98690        1.20540       -1.13670
O         -1.64680       -2.14980        1.18550
N          2.36520        0.02870       -0.11710
C          1.18450        0.87660        0.18950
C          0.05370        0.00700        0.73100
C          2.00560       -1.05270       -1.14470
C          3.50740        0.87560       -0.69370
C          2.87850       -0.66770        1.15010
C         -1.14840        0.87290        1.10620
C         -1.62240        1.68830       -0.07260
C         -1.39950       -1.73230        0.06230
C         -2.20620       -2.06950       -1.15490
H          1.48970        1.63550        0.91980
H          0.90660        1.37680       -0.74560
H          0.35160       -0.54700        1.62620
H          1.55470       -1.91810       -0.65370
H          1.39160       -0.61260       -1.93600
H          2.94300       -1.40550       -1.59030
H          3.76650        1.64200        0.04260
H          4.36650        0.22700       -0.88880
H          3.15440        1.33610       -1.62110
H          3.00410        0.08670        1.93220
H          2.18380       -1.45120        1.46030
H          3.84320       -1.12900        0.91490
H         -0.85900        1.55570        1.91500
H         -2.00900        0.30870        1.47740
H         -1.56010       -2.13590       -2.03490
H         -2.97800       -1.31320       -1.31000
H         -2.67450       -3.04780       -1.01420
H         -1.92690        3.54110       -0.59180
